03_OpenDSS_Circuits/Bellhaven_Circuit_Opendss/Loads_text.txt
New Load.263514994_1 duty=LS_PhaseA Phases=1 Bus1=263514994.1 kV=7.1998 XFKVA=75.000000 PF= 0.98
New Load.263514994_2 duty=LS_PhaseB Phases=1 Bus1=263514994.2 kV=7.1998 XFKVA=75.000000 PF= 0.98
New Load.263514994_3 duty=LS_PhaseC Phases=1 Bus1=263514994.3 kV=7.1998 XFKVA=75.000000 PF= 0.98
New Load.260972100_2 duty=LS_PhaseB Phases=1 Bus1=260972100.2 kV=7.1998 XFKVA=100.000000 PF= 0.98
New Load.261002726_2 duty=LS_PhaseB Phases=1 Bus1=261002726.2 kV=7.1998 XFKVA=50.000000 PF= 0.98
New Load.259005026_2 duty=LS_PhaseB Phases=1 Bus1=259005026.2 kV=7.1998 XFKVA=10.000000 PF= 0.98
New Load.260784285_3 duty=LS_PhaseC Phases=1 Bus1=260784285.3 kV=7.1998 XFKVA=50.000000 PF= 0.98
New Load.260784280_3 duty=LS_PhaseC Phases=1 Bus1=260784280.3 kV=7.1998 XFKVA=50.000000 PF= 0.98
New Load.260972111_3 duty=LS_PhaseC Phases=1 Bus1=260972111.3 kV=7.1998 XFKVA=100.000000 PF= 0.98
New Load.261002705_2 duty=LS_PhaseB Phases=1 Bus1=261002705.2 kV=7.1998 XFKVA=50.000000 PF= 0.98
New Load.258850750_1 duty=LS_PhaseA Phases=1 Bus1=258850750.1 kV=7.1998 XFKVA=75.000000 PF= 0.98
New Load.258850750_2 duty=LS_PhaseB Phases=1 Bus1=258850750.2 kV=7.1998 XFKVA=75.000000 PF= 0.98
New Load.258850750_3 duty=LS_PhaseC Phases=1 Bus1=258850750.3 kV=7.1998 XFKVA=75.000000 PF= 0.98
New Load.258840489_3 duty=LS_PhaseC Phases=1 Bus1=258840489.3 kV=7.1998 XFKVA=50.000000 PF= 0.98
New Load.260972116_3 duty=LS_PhaseC Phases=1 Bus1=260972116.3 kV=7.1998 XFKVA=100.000000 PF= 0.98
New Load.261031159_1 duty=LS_PhaseA Phases=1 Bus1=261031159.1 kV=7.1998 XFKVA=75.000000 PF= 0.98
New Load.260784305_3 duty=LS_PhaseC Phases=1 Bus1=260784305.3 kV=7.1998 XFKVA=50.000000 PF= 0.98
New Load.460932367_1 duty=LS_PhaseA Phases=1 Bus1=460932367.1 kV=7.1998 XFKVA=50.000000 PF= 0.98
New Load.460932367_2 duty=LS_PhaseB Phases=1 Bus1=460932367.2 kV=7.1998 XFKVA=50.000000 PF= 0.98
New Load.460932367_3 duty=LS_PhaseC Phases=1 Bus1=460932367.3 kV=7.1998 XFKVA=50.000000 PF= 0.98
New Load.259005009_1 duty=LS_PhaseA Phases=1 Bus1=259005009.1 kV=7.1998 XFKVA=15.000000 PF= 0.98
New Load.261085132_1 duty=LS_PhaseA Phases=1 Bus1=261085132.1 kV=7.1998 XFKVA=50.000000 PF= 0.98
New Load.260784300_3 duty=LS_PhaseC Phases=1 Bus1=260784300.3 kV=7.1998 XFKVA=50.000000 PF= 0.98
New Load.258840546_3 duty=LS_PhaseC Phases=1 Bus1=258840546.3 kV=7.1998 XFKVA=25.000000 PF= 0.98
New Load.259005099_3 duty=LS_PhaseC Phases=1 Bus1=259005099.3 kV=7.1998 XFKVA=25.000000 PF= 0.98
New Load.263730561_1 duty=LS_PhaseA Phases=1 Bus1=263730561.1 kV=7.1998 XFKVA=50.000000 PF= 0.98
New Load.469800067_1 duty=LS_PhaseA Phases=1 Bus1=469800067.1 kV=7.1998 XFKVA=166.700000 PF= 0.98
New Load.469800067_2 duty=LS_PhaseB Phases=1 Bus1=469800067.2 kV=7.1998 XFKVA=166.700000 PF= 0.98
New Load.469800067_3 duty=LS_PhaseC Phases=1 Bus1=469800067.3 kV=7.1998 XFKVA=166.700000 PF= 0.98
New Load.261085128_1 duty=LS_PhaseA Phases=1 Bus1=261085128.1 kV=7.1998 XFKVA=50.000000 PF= 0.98
New Load.260745472_3 duty=LS_PhaseC Phases=1 Bus1=260745472.3 kV=7.1998 XFKVA=75.000000 PF= 0.98
New Load.460932291_2 duty=LS_PhaseB Phases=1 Bus1=460932291.2 kV=7.1998 XFKVA=50.000000 PF= 0.98
New Load.260745432_2 duty=LS_PhaseB Phases=1 Bus1=260745432.2 kV=7.1998 XFKVA=75.000000 PF= 0.98
New Load.263511745_3 duty=LS_PhaseC Phases=1 Bus1=263511745.3 kV=7.1998 XFKVA=10.000000 PF= 0.98
New Load.263730579_2 duty=LS_PhaseB Phases=1 Bus1=263730579.2 kV=7.1998 XFKVA=50.000000 PF= 0.98
New Load.263701639_2 duty=LS_PhaseB Phases=1 Bus1=263701639.2 kV=7.1998 XFKVA=50.000000 PF= 0.98
New Load.263511718_1 duty=LS_PhaseA Phases=1 Bus1=263511718.1 kV=7.1998 XFKVA=50.000000 PF= 0.98
New Load.263511718_2 duty=LS_PhaseB Phases=1 Bus1=263511718.2 kV=7.1998 XFKVA=50.000000 PF= 0.98
New Load.263511718_3 duty=LS_PhaseC Phases=1 Bus1=263511718.3 kV=7.1998 XFKVA=50.000000 PF= 0.98
New Load.259004985_3 duty=LS_PhaseC Phases=1 Bus1=259004985.3 kV=7.1998 XFKVA=50.000000 PF= 0.98
New Load.263701621_3 duty=LS_PhaseC Phases=1 Bus1=263701621.3 kV=7.1998 XFKVA=50.000000 PF= 0.98
New Load.258850660_2 duty=LS_PhaseB Phases=1 Bus1=258850660.2 kV=7.1998 XFKVA=10.000000 PF= 0.98
New Load.258840462_1 duty=LS_PhaseA Phases=1 Bus1=258840462.1 kV=7.1998 XFKVA=25.000000 PF= 0.98
New Load.258840462_2 duty=LS_PhaseB Phases=1 Bus1=258840462.2 kV=7.1998 XFKVA=25.000000 PF= 0.98
New Load.258840462_3 duty=LS_PhaseC Phases=1 Bus1=258840462.3 kV=7.1998 XFKVA=25.000000 PF= 0.98
New Load.258839871_2 duty=LS_PhaseB Phases=1 Bus1=258839871.2 kV=7.1998 XFKVA=15.000000 PF= 0.98
New Load.258850618_3 duty=LS_PhaseC Phases=1 Bus1=258850618.3 kV=7.1998 XFKVA=25.000000 PF= 0.98
New Load.263701603_2 duty=LS_PhaseB Phases=1 Bus1=263701603.2 kV=7.1998 XFKVA=50.000000 PF= 0.98
New Load.263565077_3 duty=LS_PhaseC Phases=1 Bus1=263565077.3 kV=7.1998 XFKVA=75.000000 PF= 0.98
New Load.264494246_3 duty=LS_PhaseC Phases=1 Bus1=264494246.3 kV=7.1998 XFKVA=25.000000 PF= 0.98
New Load.258850638_3 duty=LS_PhaseC Phases=1 Bus1=258850638.3 kV=7.1998 XFKVA=25.000000 PF= 0.98
New Load.258850765_1 duty=LS_PhaseA Phases=1 Bus1=258850765.1 kV=7.1998 XFKVA=50.000000 PF= 0.98
New Load.258850765_2 duty=LS_PhaseB Phases=1 Bus1=258850765.2 kV=7.1998 XFKVA=50.000000 PF= 0.98
New Load.258850765_3 duty=LS_PhaseC Phases=1 Bus1=258850765.3 kV=7.1998 XFKVA=50.000000 PF= 0.98
New Load.260745311_1 duty=LS_PhaseA Phases=1 Bus1=260745311.1 kV=7.1998 XFKVA=250.000000 PF= 0.98
New Load.260745311_2 duty=LS_PhaseB Phases=1 Bus1=260745311.2 kV=7.1998 XFKVA=250.000000 PF= 0.98
New Load.260745311_3 duty=LS_PhaseC Phases=1 Bus1=260745311.3 kV=7.1998 XFKVA=250.000000 PF= 0.98
New Load.258839854_2 duty=LS_PhaseB Phases=1 Bus1=258839854.2 kV=7.1998 XFKVA=25.000000 PF= 0.98
New Load.263565086_1 duty=LS_PhaseA Phases=1 Bus1=263565086.1 kV=7.1998 XFKVA=75.000000 PF= 0.98
New Load.263565086_2 duty=LS_PhaseB Phases=1 Bus1=263565086.2 kV=7.1998 XFKVA=75.000000 PF= 0.98
New Load.263565086_3 duty=LS_PhaseC Phases=1 Bus1=263565086.3 kV=7.1998 XFKVA=75.000000 PF= 0.98
New Load.258839840_3 duty=LS_PhaseC Phases=1 Bus1=258839840.3 kV=7.1998 XFKVA=10.000000 PF= 0.98
New Load.258839840_1 duty=LS_PhaseA Phases=1 Bus1=258839840.1 kV=7.1998 XFKVA=10.000000 PF= 0.98
New Load.258839840_2 duty=LS_PhaseB Phases=1 Bus1=258839840.2 kV=7.1998 XFKVA=10.000000 PF= 0.98
New Load.258840257_3 duty=LS_PhaseC Phases=1 Bus1=258840257.3 kV=7.1998 XFKVA=10.000000 PF= 0.98
New Load.258850559_1 duty=LS_PhaseA Phases=1 Bus1=258850559.1 kV=7.1998 XFKVA=25.000000 PF= 0.98
New Load.258839948_3 duty=LS_PhaseC Phases=1 Bus1=258839948.3 kV=7.1998 XFKVA=10.000000 PF= 0.98
New Load.258840365_1 duty=LS_PhaseA Phases=1 Bus1=258840365.1 kV=7.1998 XFKVA=25.000000 PF= 0.98
New Load.258840365_2 duty=LS_PhaseB Phases=1 Bus1=258840365.2 kV=7.1998 XFKVA=25.000000 PF= 0.98
New Load.258840365_3 duty=LS_PhaseC Phases=1 Bus1=258840365.3 kV=7.1998 XFKVA=25.000000 PF= 0.98
New Load.258851452_1 duty=LS_PhaseA Phases=1 Bus1=258851452.1 kV=7.1998 XFKVA=100.000000 PF= 0.98
New Load.258851452_2 duty=LS_PhaseB Phases=1 Bus1=258851452.2 kV=7.1998 XFKVA=100.000000 PF= 0.98
New Load.258851452_3 duty=LS_PhaseC Phases=1 Bus1=258851452.3 kV=7.1998 XFKVA=100.000000 PF= 0.98
New Load.258840242_1 duty=LS_PhaseA Phases=1 Bus1=258840242.1 kV=7.1998 XFKVA=25.000000 PF= 0.98
New Load.258840425_3 duty=LS_PhaseC Phases=1 Bus1=258840425.3 kV=7.1998 XFKVA=25.000000 PF= 0.98
New Load.264494199_1 duty=LS_PhaseA Phases=1 Bus1=264494199.1 kV=7.1998 XFKVA=25.000000 PF= 0.98
New Load.264494199_2 duty=LS_PhaseB Phases=1 Bus1=264494199.2 kV=7.1998 XFKVA=25.000000 PF= 0.98
New Load.264494199_3 duty=LS_PhaseC Phases=1 Bus1=264494199.3 kV=7.1998 XFKVA=25.000000 PF= 0.98
New Load.258850544_1 duty=LS_PhaseA Phases=1 Bus1=258850544.1 kV=7.1998 XFKVA=50.000000 PF= 0.98
New Load.258850544_2 duty=LS_PhaseB Phases=1 Bus1=258850544.2 kV=7.1998 XFKVA=50.000000 PF= 0.98
New Load.258850544_3 duty=LS_PhaseC Phases=1 Bus1=258850544.3 kV=7.1998 XFKVA=50.000000 PF= 0.98
New Load.258850537_1 duty=LS_PhaseA Phases=1 Bus1=258850537.1 kV=7.1998 XFKVA=10.000000 PF= 0.98
New Load.258850537_2 duty=LS_PhaseB Phases=1 Bus1=258850537.2 kV=7.1998 XFKVA=10.000000 PF= 0.98
New Load.258850537_3 duty=LS_PhaseC Phases=1 Bus1=258850537.3 kV=7.1998 XFKVA=10.000000 PF= 0.98
New Load.258850725_2 duty=LS_PhaseB Phases=1 Bus1=258850725.2 kV=7.1998 XFKVA=10.000000 PF= 0.98
New Load.258840479_3 duty=LS_PhaseC Phases=1 Bus1=258840479.3 kV=7.1998 XFKVA=25.000000 PF= 0.98
New Load.258840398_3 duty=LS_PhaseC Phases=1 Bus1=258840398.3 kV=7.1998 XFKVA=50.000000 PF= 0.98
New Load.258851437_2 duty=LS_PhaseB Phases=1 Bus1=258851437.2 kV=7.1998 XFKVA=25.000000 PF= 0.98
New Load.263714477_1 duty=LS_PhaseA Phases=1 Bus1=263714477.1 kV=7.1998 XFKVA=15.000000 PF= 0.98
New Load.258839911_1 duty=LS_PhaseA Phases=1 Bus1=258839911.1 kV=7.1998 XFKVA=25.000000 PF= 0.98
New Load.258839911_2 duty=LS_PhaseB Phases=1 Bus1=258839911.2 kV=7.1998 XFKVA=25.000000 PF= 0.98
New Load.258839911_3 duty=LS_PhaseC Phases=1 Bus1=258839911.3 kV=7.1998 XFKVA=25.000000 PF= 0.98
New Load.258840164_1 duty=LS_PhaseA Phases=1 Bus1=258840164.1 kV=7.1998 XFKVA=25.000000 PF= 0.98
New Load.258840164_2 duty=LS_PhaseB Phases=1 Bus1=258840164.2 kV=7.1998 XFKVA=25.000000 PF= 0.98
New Load.258840164_3 duty=LS_PhaseC Phases=1 Bus1=258840164.3 kV=7.1998 XFKVA=25.000000 PF= 0.98
New Load.263515057_2 duty=LS_PhaseB Phases=1 Bus1=263515057.2 kV=7.1998 XFKVA=75.000000 PF= 0.98
New Load.466987565_1 duty=LS_PhaseA Phases=1 Bus1=466987565.1 kV=7.1998 XFKVA=50.000000 PF= 0.98
New Load.466987565_2 duty=LS_PhaseB Phases=1 Bus1=466987565.2 kV=7.1998 XFKVA=50.000000 PF= 0.98
New Load.466987565_3 duty=LS_PhaseC Phases=1 Bus1=466987565.3 kV=7.1998 XFKVA=50.000000 PF= 0.98
New Load.263515066_3 duty=LS_PhaseC Phases=1 Bus1=263515066.3 kV=7.1998 XFKVA=75.000000 PF= 0.98
New Load.258851360_1 duty=LS_PhaseA Phases=1 Bus1=258851360.1 kV=7.1998 XFKVA=50.000000 PF= 0.98
New Load.258851417_1 duty=LS_PhaseA Phases=1 Bus1=258851417.1 kV=7.1998 XFKVA=25.000000 PF= 0.98
New Load.258840142_1 duty=LS_PhaseA Phases=1 Bus1=258840142.1 kV=7.1998 XFKVA=166.700000 PF= 0.98
New Load.258840142_2 duty=LS_PhaseB Phases=1 Bus1=258840142.2 kV=7.1998 XFKVA=166.700000 PF= 0.98
New Load.258840142_3 duty=LS_PhaseC Phases=1 Bus1=258840142.3 kV=7.1998 XFKVA=166.700000 PF= 0.98
New Load.258851237_3 duty=LS_PhaseC Phases=1 Bus1=258851237.3 kV=7.1998 XFKVA=25.000000 PF= 0.98
New Load.264494181_1 duty=LS_PhaseA Phases=1 Bus1=264494181.1 kV=7.1998 XFKVA=25.000000 PF= 0.98
New Load.264494181_2 duty=LS_PhaseB Phases=1 Bus1=264494181.2 kV=7.1998 XFKVA=25.000000 PF= 0.98
New Load.264494181_3 duty=LS_PhaseC Phases=1 Bus1=264494181.3 kV=7.1998 XFKVA=25.000000 PF= 0.98
New Load.263515165_1 duty=LS_PhaseA Phases=1 Bus1=263515165.1 kV=7.1998 XFKVA=250.000000 PF= 0.98
New Load.263515165_2 duty=LS_PhaseB Phases=1 Bus1=263515165.2 kV=7.1998 XFKVA=250.000000 PF= 0.98
New Load.263515165_3 duty=LS_PhaseC Phases=1 Bus1=263515165.3 kV=7.1998 XFKVA=250.000000 PF= 0.98
New Load.258851343_3 duty=LS_PhaseC Phases=1 Bus1=258851343.3 kV=7.1998 XFKVA=25.000000 PF= 0.98
New Load.258840302_2 duty=LS_PhaseB Phases=1 Bus1=258840302.2 kV=7.1998 XFKVA=25.000000 PF= 0.98
New Load.258851402_2 duty=LS_PhaseB Phases=1 Bus1=258851402.2 kV=7.1998 XFKVA=50.000000 PF= 0.98
New Load.258840297_2 duty=LS_PhaseB Phases=1 Bus1=258840297.2 kV=7.1998 XFKVA=10.000000 PF= 0.98
New Load.259121514_1 duty=LS_PhaseA Phases=1 Bus1=259121514.1 kV=7.1998 XFKVA=15.000000 PF= 0.98
New Load.259121514_2 duty=LS_PhaseB Phases=1 Bus1=259121514.2 kV=7.1998 XFKVA=15.000000 PF= 0.98
New Load.259121514_3 duty=LS_PhaseC Phases=1 Bus1=259121514.3 kV=7.1998 XFKVA=15.000000 PF= 0.98
New Load.258851397_2 duty=LS_PhaseB Phases=1 Bus1=258851397.2 kV=7.1998 XFKVA=25.000000 PF= 0.98
New Load.258851476_1 duty=LS_PhaseA Phases=1 Bus1=258851476.1 kV=7.1998 XFKVA=25.000000 PF= 0.98
New Load.258851476_2 duty=LS_PhaseB Phases=1 Bus1=258851476.2 kV=7.1998 XFKVA=25.000000 PF= 0.98
New Load.258851476_3 duty=LS_PhaseC Phases=1 Bus1=258851476.3 kV=7.1998 XFKVA=25.000000 PF= 0.98
New Load.258840122_2 duty=LS_PhaseB Phases=1 Bus1=258840122.2 kV=7.1998 XFKVA=25.000000 PF= 0.98
New Load.258840079_2 duty=LS_PhaseB Phases=1 Bus1=258840079.2 kV=7.1998 XFKVA=25.000000 PF= 0.98
New Load.263515138_1 duty=LS_PhaseA Phases=1 Bus1=263515138.1 kV=7.1998 XFKVA=25.000000 PF= 0.98
New Load.460932520_1 duty=LS_PhaseA Phases=1 Bus1=460932520.1 kV=7.1998 XFKVA=50.000000 PF= 0.98
New Load.258840032_1 duty=LS_PhaseA Phases=1 Bus1=258840032.1 kV=7.1998 XFKVA=10.000000 PF= 0.98
New Load.258840032_2 duty=LS_PhaseB Phases=1 Bus1=258840032.2 kV=7.1998 XFKVA=10.000000 PF= 0.98
New Load.258840032_3 duty=LS_PhaseC Phases=1 Bus1=258840032.3 kV=7.1998 XFKVA=10.000000 PF= 0.98
New Load.263815483_1 duty=LS_PhaseA Phases=1 Bus1=263815483.1 kV=7.1998 XFKVA=25.000000 PF= 0.98
New Load.258851323_3 duty=LS_PhaseC Phases=1 Bus1=258851323.3 kV=7.1998 XFKVA=50.000000 PF= 0.98
New Load.260745346_1 duty=LS_PhaseA Phases=1 Bus1=260745346.1 kV=7.1998 XFKVA=250.000000 PF= 0.98
New Load.260745346_2 duty=LS_PhaseB Phases=1 Bus1=260745346.2 kV=7.1998 XFKVA=250.000000 PF= 0.98
New Load.260745346_3 duty=LS_PhaseC Phases=1 Bus1=260745346.3 kV=7.1998 XFKVA=250.000000 PF= 0.98
New Load.258851283_1 duty=LS_PhaseA Phases=1 Bus1=258851283.1 kV=7.1998 XFKVA=15.000000 PF= 0.98
New Load.258851202_1 duty=LS_PhaseA Phases=1 Bus1=258851202.1 kV=7.1998 XFKVA=10.000000 PF= 0.98
New Load.258851202_2 duty=LS_PhaseB Phases=1 Bus1=258851202.2 kV=7.1998 XFKVA=10.000000 PF= 0.98
New Load.258851202_3 duty=LS_PhaseC Phases=1 Bus1=258851202.3 kV=7.1998 XFKVA=10.000000 PF= 0.98
New Load.263515120_1 duty=LS_PhaseA Phases=1 Bus1=263515120.1 kV=7.1998 XFKVA=75.000000 PF= 0.98
New Load.258851197_1 duty=LS_PhaseA Phases=1 Bus1=258851197.1 kV=7.1998 XFKVA=10.000000 PF= 0.98
New Load.258851197_2 duty=LS_PhaseB Phases=1 Bus1=258851197.2 kV=7.1998 XFKVA=10.000000 PF= 0.98
New Load.258851197_3 duty=LS_PhaseC Phases=1 Bus1=258851197.3 kV=7.1998 XFKVA=10.000000 PF= 0.98
New Load.258851278_1 duty=LS_PhaseA Phases=1 Bus1=258851278.1 kV=7.1998 XFKVA=25.000000 PF= 0.98
New Load.258851278_2 duty=LS_PhaseB Phases=1 Bus1=258851278.2 kV=7.1998 XFKVA=25.000000 PF= 0.98
New Load.258851278_3 duty=LS_PhaseC Phases=1 Bus1=258851278.3 kV=7.1998 XFKVA=25.000000 PF= 0.98
New Load.258851019_2 duty=LS_PhaseB Phases=1 Bus1=258851019.2 kV=7.1998 XFKVA=50.000000 PF= 0.98
New Load.258851145_1 duty=LS_PhaseA Phases=1 Bus1=258851145.1 kV=7.1998 XFKVA=25.000000 PF= 0.98
New Load.263515003_1 duty=LS_PhaseA Phases=1 Bus1=263515003.1 kV=7.1998 XFKVA=75.000000 PF= 0.98
New Load.263515003_2 duty=LS_PhaseB Phases=1 Bus1=263515003.2 kV=7.1998 XFKVA=75.000000 PF= 0.98
New Load.263515003_3 duty=LS_PhaseC Phases=1 Bus1=263515003.3 kV=7.1998 XFKVA=75.000000 PF= 0.98
New Load.263515084_3 duty=LS_PhaseC Phases=1 Bus1=263515084.3 kV=7.1998 XFKVA=25.000000 PF= 0.98
New Load.258851382_1 duty=LS_PhaseA Phases=1 Bus1=258851382.1 kV=7.1998 XFKVA=25.000000 PF= 0.98
New Load.258851298_1 duty=LS_PhaseA Phases=1 Bus1=258851298.1 kV=7.1998 XFKVA=25.000000 PF= 0.98
New Load.258851298_2 duty=LS_PhaseB Phases=1 Bus1=258851298.2 kV=7.1998 XFKVA=25.000000 PF= 0.98
New Load.258851298_3 duty=LS_PhaseC Phases=1 Bus1=258851298.3 kV=7.1998 XFKVA=25.000000 PF= 0.98
New Load.258851377_1 duty=LS_PhaseA Phases=1 Bus1=258851377.1 kV=7.1998 XFKVA=25.000000 PF= 0.98
New Load.258851123_3 duty=LS_PhaseC Phases=1 Bus1=258851123.3 kV=7.1998 XFKVA=25.000000 PF= 0.98
New Load.258850999_1 duty=LS_PhaseA Phases=1 Bus1=258850999.1 kV=7.1998 XFKVA=50.000000 PF= 0.98
New Load.258850999_2 duty=LS_PhaseB Phases=1 Bus1=258850999.2 kV=7.1998 XFKVA=50.000000 PF= 0.98
New Load.258850999_3 duty=LS_PhaseC Phases=1 Bus1=258850999.3 kV=7.1998 XFKVA=50.000000 PF= 0.98
New Load.258851079_2 duty=LS_PhaseB Phases=1 Bus1=258851079.2 kV=7.1998 XFKVA=25.000000 PF= 0.98
New Load.472684459_1 duty=LS_PhaseA Phases=1 Bus1=472684459.1 kV=7.1998 XFKVA=50.000000 PF= 0.98
New Load.472684459_2 duty=LS_PhaseB Phases=1 Bus1=472684459.2 kV=7.1998 XFKVA=50.000000 PF= 0.98
New Load.472684459_3 duty=LS_PhaseC Phases=1 Bus1=472684459.3 kV=7.1998 XFKVA=50.000000 PF= 0.98
New Load.259004984_2 duty=LS_PhaseB Phases=1 Bus1=259004984.2 kV=7.1998 XFKVA=50.000000 PF= 0.98
New Load.261124294_1 duty=LS_PhaseA Phases=1 Bus1=261124294.1 kV=7.1998 XFKVA=250.000000 PF= 0.98
New Load.261124294_2 duty=LS_PhaseB Phases=1 Bus1=261124294.2 kV=7.1998 XFKVA=250.000000 PF= 0.98
New Load.261124294_3 duty=LS_PhaseC Phases=1 Bus1=261124294.3 kV=7.1998 XFKVA=250.000000 PF= 0.98
New Load.263514859_1 duty=LS_PhaseA Phases=1 Bus1=263514859.1 kV=7.1998 XFKVA=50.000000 PF= 0.98
New Load.263514859_2 duty=LS_PhaseB Phases=1 Bus1=263514859.2 kV=7.1998 XFKVA=50.000000 PF= 0.98
New Load.263514859_3 duty=LS_PhaseC Phases=1 Bus1=263514859.3 kV=7.1998 XFKVA=50.000000 PF= 0.98
New Load.258851103_2 duty=LS_PhaseB Phases=1 Bus1=258851103.2 kV=7.1998 XFKVA=25.000000 PF= 0.98
New Load.258851180_1 duty=LS_PhaseA Phases=1 Bus1=258851180.1 kV=7.1998 XFKVA=25.000000 PF= 0.98
New Load.261124314_1 duty=LS_PhaseA Phases=1 Bus1=261124314.1 kV=7.1998 XFKVA=50.000000 PF= 0.98
New Load.261124314_2 duty=LS_PhaseB Phases=1 Bus1=261124314.2 kV=7.1998 XFKVA=50.000000 PF= 0.98
New Load.261124314_3 duty=LS_PhaseC Phases=1 Bus1=261124314.3 kV=7.1998 XFKVA=50.000000 PF= 0.98
New Load.472684499_1 duty=LS_PhaseA Phases=1 Bus1=472684499.1 kV=7.1998 XFKVA=250.000000 PF= 0.98
New Load.472684499_2 duty=LS_PhaseB Phases=1 Bus1=472684499.2 kV=7.1998 XFKVA=250.000000 PF= 0.98
New Load.472684499_3 duty=LS_PhaseC Phases=1 Bus1=472684499.3 kV=7.1998 XFKVA=250.000000 PF= 0.98
New Load.258851180_2_1 duty=LS_PhaseA Phases=1 Bus1=258851180.1 kV=7.1998 XFKVA=10.000000 PF= 0.98
New Load.258851180_2 duty=LS_PhaseB Phases=1 Bus1=258851180.2 kV=7.1998 XFKVA=10.000000 PF= 0.98
New Load.258851180_3 duty=LS_PhaseC Phases=1 Bus1=258851180.3 kV=7.1998 XFKVA=10.000000 PF= 0.98
New Load.261124288_1 duty=LS_PhaseA Phases=1 Bus1=261124288.1 kV=7.1998 XFKVA=500.000000 PF= 0.98
New Load.261124288_2 duty=LS_PhaseB Phases=1 Bus1=261124288.2 kV=7.1998 XFKVA=500.000000 PF= 0.98
New Load.261124288_3 duty=LS_PhaseC Phases=1 Bus1=261124288.3 kV=7.1998 XFKVA=500.000000 PF= 0.98
New Load.263514841_1 duty=LS_PhaseA Phases=1 Bus1=263514841.1 kV=7.1998 XFKVA=50.000000 PF= 0.98
New Load.263514841_2 duty=LS_PhaseB Phases=1 Bus1=263514841.2 kV=7.1998 XFKVA=50.000000 PF= 0.98
New Load.263514841_3 duty=LS_PhaseC Phases=1 Bus1=263514841.3 kV=7.1998 XFKVA=50.000000 PF= 0.98
New Load.258850960_1 duty=LS_PhaseA Phases=1 Bus1=258850960.1 kV=7.1998 XFKVA=25.000000 PF= 0.98
New Load.258850960_2 duty=LS_PhaseB Phases=1 Bus1=258850960.2 kV=7.1998 XFKVA=25.000000 PF= 0.98
New Load.258850960_3 duty=LS_PhaseC Phases=1 Bus1=258850960.3 kV=7.1998 XFKVA=25.000000 PF= 0.98
New Load.288683093_1 duty=LS_PhaseA Phases=1 Bus1=288683093.1 kV=7.1998 XFKVA=1534.000000 PF= 0.98
New Load.288683093_2 duty=LS_PhaseB Phases=1 Bus1=288683093.2 kV=7.1998 XFKVA=1533.000000 PF= 0.98
New Load.288683093_3 duty=LS_PhaseC Phases=1 Bus1=288683093.3 kV=7.1998 XFKVA=1533.000000 PF= 0.98
New Load.260784275_3 duty=LS_PhaseC Phases=1 Bus1=260784275.3 kV=7.1998 XFKVA=50.000000 PF= 0.98
New Load.258840361_3 duty=LS_PhaseC Phases=1 Bus1=258840361.3 kV=7.1998 XFKVA=25.000000 PF= 0.98
New Load.261002775_1 duty=LS_PhaseA Phases=1 Bus1=261002775.1 kV=7.1998 XFKVA=50.000000 PF= 0.98
New Load.264516154_2 duty=LS_PhaseB Phases=1 Bus1=264516154.2 kV=7.1998 XFKVA=10.000000 PF= 0.98
New Load.258850941_1 duty=LS_PhaseA Phases=1 Bus1=258850941.1 kV=7.1998 XFKVA=100.000000 PF= 0.98
New Load.258850941_2 duty=LS_PhaseB Phases=1 Bus1=258850941.2 kV=7.1998 XFKVA=100.000000 PF= 0.98
New Load.258850941_3 duty=LS_PhaseC Phases=1 Bus1=258850941.3 kV=7.1998 XFKVA=100.000000 PF= 0.98
New Load.258850975_2 duty=LS_PhaseB Phases=1 Bus1=258850975.2 kV=7.1998 XFKVA=10.000000 PF= 0.98
New Load.263514877_1 duty=LS_PhaseA Phases=1 Bus1=263514877.1 kV=7.1998 XFKVA=250.000000 PF= 0.98
New Load.263514877_2 duty=LS_PhaseB Phases=1 Bus1=263514877.2 kV=7.1998 XFKVA=250.000000 PF= 0.98
New Load.263514877_3 duty=LS_PhaseC Phases=1 Bus1=263514877.3 kV=7.1998 XFKVA=250.000000 PF= 0.98
New Load.260784255_3 duty=LS_PhaseC Phases=1 Bus1=260784255.3 kV=7.1998 XFKVA=75.000000 PF= 0.98
New Load.260972125_3 duty=LS_PhaseC Phases=1 Bus1=260972125.3 kV=7.1998 XFKVA=75.000000 PF= 0.98
New Load.263514805_1 duty=LS_PhaseA Phases=1 Bus1=263514805.1 kV=7.1998 XFKVA=100.000000 PF= 0.98
New Load.263514805_2 duty=LS_PhaseB Phases=1 Bus1=263514805.2 kV=7.1998 XFKVA=100.000000 PF= 0.98
New Load.263514805_3 duty=LS_PhaseC Phases=1 Bus1=263514805.3 kV=7.1998 XFKVA=100.000000 PF= 0.98
New Load.263514886_2 duty=LS_PhaseB Phases=1 Bus1=263514886.2 kV=7.1998 XFKVA=100.000000 PF= 0.98
New Load.263514886_3 duty=LS_PhaseC Phases=1 Bus1=263514886.3 kV=7.1998 XFKVA=100.000000 PF= 0.98
New Load.263514886_1 duty=LS_PhaseA Phases=1 Bus1=263514886.1 kV=7.1998 XFKVA=100.000000 PF= 0.98
New Load.260784250_3 duty=LS_PhaseC Phases=1 Bus1=260784250.3 kV=7.1998 XFKVA=75.000000 PF= 0.98
New Load.261002751_1 duty=LS_PhaseA Phases=1 Bus1=261002751.1 kV=7.1998 XFKVA=50.000000 PF= 0.98
New Load.460932563_3 duty=LS_PhaseC Phases=1 Bus1=460932563.3 kV=7.1998 XFKVA=25.000000 PF= 0.98
New Load.258850917_1 duty=LS_PhaseA Phases=1 Bus1=258850917.1 kV=7.1998 XFKVA=50.000000 PF= 0.98
New Load.258850917_2 duty=LS_PhaseB Phases=1 Bus1=258850917.2 kV=7.1998 XFKVA=50.000000 PF= 0.98
New Load.258850917_3 duty=LS_PhaseC Phases=1 Bus1=258850917.3 kV=7.1998 XFKVA=50.000000 PF= 0.98
New Load.260972085_3 duty=LS_PhaseC Phases=1 Bus1=260972085.3 kV=7.1998 XFKVA=50.000000 PF= 0.98
New Load.263514904_1 duty=LS_PhaseA Phases=1 Bus1=263514904.1 kV=7.1998 XFKVA=666.700000 PF= 0.98
New Load.263514904_2 duty=LS_PhaseB Phases=1 Bus1=263514904.2 kV=7.1998 XFKVA=666.700000 PF= 0.98
New Load.263514904_3 duty=LS_PhaseC Phases=1 Bus1=263514904.3 kV=7.1998 XFKVA=666.700000 PF= 0.98
New Load.261002756_1 duty=LS_PhaseA Phases=1 Bus1=261002756.1 kV=7.1998 XFKVA=50.000000 PF= 0.98
New Load.259005036_1 duty=LS_PhaseA Phases=1 Bus1=259005036.1 kV=7.1998 XFKVA=15.000000 PF= 0.98
New Load.259005036_2 duty=LS_PhaseB Phases=1 Bus1=259005036.2 kV=7.1998 XFKVA=15.000000 PF= 0.98
New Load.259005036_3 duty=LS_PhaseC Phases=1 Bus1=259005036.3 kV=7.1998 XFKVA=15.000000 PF= 0.98
New Load.263514985_1 duty=LS_PhaseA Phases=1 Bus1=263514985.1 kV=7.1998 XFKVA=100.000000 PF= 0.98
New Load.263514985_2 duty=LS_PhaseB Phases=1 Bus1=263514985.2 kV=7.1998 XFKVA=100.000000 PF= 0.98
New Load.263514985_3 duty=LS_PhaseC Phases=1 Bus1=263514985.3 kV=7.1998 XFKVA=100.000000 PF= 0.98
New Load.259172465_2 duty=LS_PhaseB Phases=1 Bus1=259172465.2 kV=7.1998 XFKVA=25.000000 PF= 0.98
New Load.260972105_1 duty=LS_PhaseA Phases=1 Bus1=260972105.1 kV=7.1998 XFKVA=100.000000 PF= 0.98
New Load.261002735_2 duty=LS_PhaseB Phases=1 Bus1=261002735.2 kV=7.1998 XFKVA=50.000000 PF= 0.98
New Load.259371838_1 duty=LS_PhaseA Phases=1 Bus1=259371838.1 kV=7.1998 XFKVA=25.000000 PF= 0.98
New Load.258850982_1 duty=LS_PhaseA Phases=1 Bus1=258850982.1 kV=7.1998 XFKVA=25.000000 PF= 0.98
New Load.258850982_2 duty=LS_PhaseB Phases=1 Bus1=258850982.2 kV=7.1998 XFKVA=25.000000 PF= 0.98
New Load.258850982_3 duty=LS_PhaseC Phases=1 Bus1=258850982.3 kV=7.1998 XFKVA=25.000000 PF= 0.98
New Load.261002695_1 duty=LS_PhaseA Phases=1 Bus1=261002695.1 kV=7.1998 XFKVA=50.000000 PF= 0.98
New Load.260784295_3 duty=LS_PhaseC Phases=1 Bus1=260784295.3 kV=7.1998 XFKVA=50.000000 PF= 0.98
New Load.260784290_3 duty=LS_PhaseC Phases=1 Bus1=260784290.3 kV=7.1998 XFKVA=50.000000 PF= 0.98
New Load.259005021_2 duty=LS_PhaseB Phases=1 Bus1=259005021.2 kV=7.1998 XFKVA=15.000000 PF= 0.98
New Load.261031178_2 duty=LS_PhaseB Phases=1 Bus1=261031178.2 kV=7.1998 XFKVA=50.000000 PF= 0.98
New Load.261031173_2 duty=LS_PhaseB Phases=1 Bus1=261031173.2 kV=7.1998 XFKVA=50.000000 PF= 0.98
New Load.258851069_3 duty=LS_PhaseC Phases=1 Bus1=258851069.3 kV=7.1998 XFKVA=25.000000 PF= 0.98
New Load.261002716_2 duty=LS_PhaseB Phases=1 Bus1=261002716.2 kV=7.1998 XFKVA=50.000000 PF= 0.98
New Load.260745457_2 duty=LS_PhaseB Phases=1 Bus1=260745457.2 kV=7.1998 XFKVA=75.000000 PF= 0.98
New Load.261031154_1 duty=LS_PhaseA Phases=1 Bus1=261031154.1 kV=7.1998 XFKVA=100.000000 PF= 0.98
New Load.263730570_1 duty=LS_PhaseA Phases=1 Bus1=263730570.1 kV=7.1998 XFKVA=50.000000 PF= 0.98
New Load.259004980_2 duty=LS_PhaseB Phases=1 Bus1=259004980.2 kV=7.1998 XFKVA=25.000000 PF= 0.98
New Load.263862867_1 duty=LS_PhaseA Phases=1 Bus1=263862867.1 kV=7.1998 XFKVA=75.000000 PF= 0.98
New Load.460932379_1 duty=LS_PhaseA Phases=1 Bus1=460932379.1 kV=7.1998 XFKVA=50.000000 PF= 0.98
New Load.460932379_2 duty=LS_PhaseB Phases=1 Bus1=460932379.2 kV=7.1998 XFKVA=50.000000 PF= 0.98
New Load.460932379_3 duty=LS_PhaseC Phases=1 Bus1=460932379.3 kV=7.1998 XFKVA=50.000000 PF= 0.98
New Load.260745417_3 duty=LS_PhaseC Phases=1 Bus1=260745417.3 kV=7.1998 XFKVA=75.000000 PF= 0.98
New Load.263511655_1 duty=LS_PhaseA Phases=1 Bus1=263511655.1 kV=7.1998 XFKVA=25.000000 PF= 0.98
New Load.263511655_2 duty=LS_PhaseB Phases=1 Bus1=263511655.2 kV=7.1998 XFKVA=25.000000 PF= 0.98
New Load.263511655_3 duty=LS_PhaseC Phases=1 Bus1=263511655.3 kV=7.1998 XFKVA=25.000000 PF= 0.98
New Load.263565068_3 duty=LS_PhaseC Phases=1 Bus1=263565068.3 kV=7.1998 XFKVA=50.000000 PF= 0.98
New Load.263511754_1 duty=LS_PhaseA Phases=1 Bus1=263511754.1 kV=7.1998 XFKVA=50.000000 PF= 0.98
New Load.263730588_2 duty=LS_PhaseB Phases=1 Bus1=263730588.2 kV=7.1998 XFKVA=50.000000 PF= 0.98
New Load.263973872_1 duty=LS_PhaseA Phases=1 Bus1=263973872.1 kV=7.1998 XFKVA=833.300000 PF= 0.98
New Load.263973872_2 duty=LS_PhaseB Phases=1 Bus1=263973872.2 kV=7.1998 XFKVA=833.300000 PF= 0.98
New Load.263973872_3 duty=LS_PhaseC Phases=1 Bus1=263973872.3 kV=7.1998 XFKVA=833.300000 PF= 0.98
New Load.258851232_3 duty=LS_PhaseC Phases=1 Bus1=258851232.3 kV=7.1998 XFKVA=50.000000 PF= 0.98
New Load.263511727_1 duty=LS_PhaseA Phases=1 Bus1=263511727.1 kV=7.1998 XFKVA=100.000000 PF= 0.98
New Load.263511736_3 duty=LS_PhaseC Phases=1 Bus1=263511736.3 kV=7.1998 XFKVA=25.000000 PF= 0.98
New Load.258850670_1 duty=LS_PhaseA Phases=1 Bus1=258850670.1 kV=7.1998 XFKVA=10.000000 PF= 0.98
New Load.258850670_2 duty=LS_PhaseB Phases=1 Bus1=258850670.2 kV=7.1998 XFKVA=10.000000 PF= 0.98
New Load.258850670_3 duty=LS_PhaseC Phases=1 Bus1=258850670.3 kV=7.1998 XFKVA=10.000000 PF= 0.98
New Load.263511691_1 duty=LS_PhaseA Phases=1 Bus1=263511691.1 kV=7.1998 XFKVA=25.000000 PF= 0.98
New Load.263511691_2 duty=LS_PhaseB Phases=1 Bus1=263511691.2 kV=7.1998 XFKVA=25.000000 PF= 0.98
New Load.263511691_3 duty=LS_PhaseC Phases=1 Bus1=263511691.3 kV=7.1998 XFKVA=25.000000 PF= 0.98
New Load.258850770_1 duty=LS_PhaseA Phases=1 Bus1=258850770.1 kV=7.1998 XFKVA=50.000000 PF= 0.98
New Load.258850770_2 duty=LS_PhaseB Phases=1 Bus1=258850770.2 kV=7.1998 XFKVA=50.000000 PF= 0.98
New Load.258850770_3 duty=LS_PhaseC Phases=1 Bus1=258850770.3 kV=7.1998 XFKVA=50.000000 PF= 0.98
New Load.263701630_1 duty=LS_PhaseA Phases=1 Bus1=263701630.1 kV=7.1998 XFKVA=100.000000 PF= 0.98
New Load.263511709_1 duty=LS_PhaseA Phases=1 Bus1=263511709.1 kV=7.1998 XFKVA=500.000000 PF= 0.98
New Load.263511709_2 duty=LS_PhaseB Phases=1 Bus1=263511709.2 kV=7.1998 XFKVA=500.000000 PF= 0.98
New Load.263511709_3 duty=LS_PhaseC Phases=1 Bus1=263511709.3 kV=7.1998 XFKVA=500.000000 PF= 0.98
New Load.258840452_2 duty=LS_PhaseB Phases=1 Bus1=258840452.2 kV=7.1998 XFKVA=25.000000 PF= 0.98
New Load.258850655_1 duty=LS_PhaseA Phases=1 Bus1=258850655.1 kV=7.1998 XFKVA=50.000000 PF= 0.98
New Load.258850655_2 duty=LS_PhaseB Phases=1 Bus1=258850655.2 kV=7.1998 XFKVA=50.000000 PF= 0.98
New Load.258850655_3 duty=LS_PhaseC Phases=1 Bus1=258850655.3 kV=7.1998 XFKVA=50.000000 PF= 0.98
New Load.258840272_3 duty=LS_PhaseC Phases=1 Bus1=258840272.3 kV=7.1998 XFKVA=25.000000 PF= 0.98
New Load.263638667_3 duty=LS_PhaseC Phases=1 Bus1=263638667.3 kV=7.1998 XFKVA=15.000000 PF= 0.98
New Load.263701612_3 duty=LS_PhaseC Phases=1 Bus1=263701612.3 kV=7.1998 XFKVA=50.000000 PF= 0.98
New Load.263565095_1 duty=LS_PhaseA Phases=1 Bus1=263565095.1 kV=7.1998 XFKVA=50.000000 PF= 0.98
New Load.263565095_2 duty=LS_PhaseB Phases=1 Bus1=263565095.2 kV=7.1998 XFKVA=50.000000 PF= 0.98
New Load.263565095_3 duty=LS_PhaseC Phases=1 Bus1=263565095.3 kV=7.1998 XFKVA=50.000000 PF= 0.98
New Load.258850569_1 duty=LS_PhaseA Phases=1 Bus1=258850569.1 kV=7.1998 XFKVA=25.000000 PF= 0.98
New Load.258850569_2 duty=LS_PhaseB Phases=1 Bus1=258850569.2 kV=7.1998 XFKVA=25.000000 PF= 0.98
New Load.258850569_3 duty=LS_PhaseC Phases=1 Bus1=258850569.3 kV=7.1998 XFKVA=25.000000 PF= 0.98
New Load.258850549_1 duty=LS_PhaseA Phases=1 Bus1=258850549.1 kV=7.1998 XFKVA=25.000000 PF= 0.98
New Load.258850549_2 duty=LS_PhaseB Phases=1 Bus1=258850549.2 kV=7.1998 XFKVA=25.000000 PF= 0.98
New Load.258850549_3 duty=LS_PhaseC Phases=1 Bus1=258850549.3 kV=7.1998 XFKVA=25.000000 PF= 0.98
New Load.258839936_1 duty=LS_PhaseA Phases=1 Bus1=258839936.1 kV=7.1998 XFKVA=25.000000 PF= 0.98
New Load.258839936_2 duty=LS_PhaseB Phases=1 Bus1=258839936.2 kV=7.1998 XFKVA=25.000000 PF= 0.98
New Load.258839936_3 duty=LS_PhaseC Phases=1 Bus1=258839936.3 kV=7.1998 XFKVA=25.000000 PF= 0.98
New Load.258840408_3 duty=LS_PhaseC Phases=1 Bus1=258840408.3 kV=7.1998 XFKVA=25.000000 PF= 0.98
New Load.258840356_1 duty=LS_PhaseA Phases=1 Bus1=258840356.1 kV=7.1998 XFKVA=149.000000 PF= 0.98
New Load.258840356_2 duty=LS_PhaseB Phases=1 Bus1=258840356.2 kV=7.1998 XFKVA=149.000000 PF= 0.98
New Load.258840356_3 duty=LS_PhaseC Phases=1 Bus1=258840356.3 kV=7.1998 XFKVA=148.000000 PF= 0.98
New Load.258851268_1 duty=LS_PhaseA Phases=1 Bus1=258851268.1 kV=7.1998 XFKVA=50.000000 PF= 0.98
New Load.258851268_2 duty=LS_PhaseB Phases=1 Bus1=258851268.2 kV=7.1998 XFKVA=50.000000 PF= 0.98
New Load.258851268_3 duty=LS_PhaseC Phases=1 Bus1=258851268.3 kV=7.1998 XFKVA=50.000000 PF= 0.98
New Load.258850710_2 duty=LS_PhaseB Phases=1 Bus1=258850710.2 kV=7.1998 XFKVA=10.000000 PF= 0.98
New Load.258839921_1 duty=LS_PhaseA Phases=1 Bus1=258839921.1 kV=7.1998 XFKVA=25.000000 PF= 0.98
New Load.263701594_1 duty=LS_PhaseA Phases=1 Bus1=263701594.1 kV=7.1998 XFKVA=100.000000 PF= 0.98
New Load.264021666_1 duty=LS_PhaseA Phases=1 Bus1=264021666.1 kV=7.1998 XFKVA=500.000000 PF= 0.98
New Load.264021666_2 duty=LS_PhaseB Phases=1 Bus1=264021666.2 kV=7.1998 XFKVA=500.000000 PF= 0.98
New Load.264021666_3 duty=LS_PhaseC Phases=1 Bus1=264021666.3 kV=7.1998 XFKVA=500.000000 PF= 0.98
New Load.258851422_1 duty=LS_PhaseA Phases=1 Bus1=258851422.1 kV=7.1998 XFKVA=25.000000 PF= 0.98
New Load.258840005_3 duty=LS_PhaseC Phases=1 Bus1=258840005.3 kV=7.1998 XFKVA=15.000000 PF= 0.98
New Load.258840210_1 duty=LS_PhaseA Phases=1 Bus1=258840210.1 kV=7.1998 XFKVA=10.000000 PF= 0.98
New Load.258840210_2 duty=LS_PhaseB Phases=1 Bus1=258840210.2 kV=7.1998 XFKVA=10.000000 PF= 0.98
New Load.258840210_3 duty=LS_PhaseC Phases=1 Bus1=258840210.3 kV=7.1998 XFKVA=10.000000 PF= 0.98
New Load.258840036_3 duty=LS_PhaseC Phases=1 Bus1=258840036.3 kV=7.1998 XFKVA=5.000000 PF= 0.98
New Load.258840219_3 duty=LS_PhaseC Phases=1 Bus1=258840219.3 kV=7.1998 XFKVA=25.000000 PF= 0.98
New Load.258840027_3 duty=LS_PhaseC Phases=1 Bus1=258840027.3 kV=7.1998 XFKVA=25.000000 PF= 0.98
New Load.258851069_2_2 duty=LS_PhaseC Phases=1 Bus1=258851069.3 kV=7.1998 XFKVA=75.000000 PF= 0.98
New Load.258839980_1 duty=LS_PhaseA Phases=1 Bus1=258839980.1 kV=7.1998 XFKVA=25.000000 PF= 0.98
New Load.258839980_2 duty=LS_PhaseB Phases=1 Bus1=258839980.2 kV=7.1998 XFKVA=25.000000 PF= 0.98
New Load.258839980_3 duty=LS_PhaseC Phases=1 Bus1=258839980.3 kV=7.1998 XFKVA=25.000000 PF= 0.98
New Load.258840397_3 duty=LS_PhaseC Phases=1 Bus1=258840397.3 kV=7.1998 XFKVA=25.000000 PF= 0.98
New Load.472683911_1 duty=LS_PhaseA Phases=1 Bus1=472683911.1 kV=7.1998 XFKVA=75.000000 PF= 0.98
New Load.472683911_2 duty=LS_PhaseB Phases=1 Bus1=472683911.2 kV=7.1998 XFKVA=75.000000 PF= 0.98
New Load.472683911_3 duty=LS_PhaseC Phases=1 Bus1=472683911.3 kV=7.1998 XFKVA=75.000000 PF= 0.98
New Load.258851412_1 duty=LS_PhaseA Phases=1 Bus1=258851412.1 kV=7.1998 XFKVA=25.000000 PF= 0.98
New Load.263515075_2 duty=LS_PhaseB Phases=1 Bus1=263515075.2 kV=7.1998 XFKVA=50.000000 PF= 0.98
New Load.258851348_3 duty=LS_PhaseC Phases=1 Bus1=258851348.3 kV=7.1998 XFKVA=50.000000 PF= 0.98
New Load.258840132_1 duty=LS_PhaseA Phases=1 Bus1=258840132.1 kV=7.1998 XFKVA=25.000000 PF= 0.98
New Load.258840132_2 duty=LS_PhaseB Phases=1 Bus1=258840132.2 kV=7.1998 XFKVA=25.000000 PF= 0.98
New Load.258840132_3 duty=LS_PhaseC Phases=1 Bus1=258840132.3 kV=7.1998 XFKVA=25.000000 PF= 0.98
New Load.258851227_3 duty=LS_PhaseC Phases=1 Bus1=258851227.3 kV=7.1998 XFKVA=50.000000 PF= 0.98
New Load.258840012_1 duty=LS_PhaseA Phases=1 Bus1=258840012.1 kV=7.1998 XFKVA=25.000000 PF= 0.98
New Load.258851054_2 duty=LS_PhaseB Phases=1 Bus1=258851054.2 kV=7.1998 XFKVA=25.000000 PF= 0.98
New Load.258840072_2 duty=LS_PhaseB Phases=1 Bus1=258840072.2 kV=7.1998 XFKVA=25.000000 PF= 0.98
New Load.258840072_3 duty=LS_PhaseC Phases=1 Bus1=258840072.3 kV=7.1998 XFKVA=25.000000 PF= 0.98
New Load.258840072_1 duty=LS_PhaseA Phases=1 Bus1=258840072.1 kV=7.1998 XFKVA=25.000000 PF= 0.98
New Load.263515048_3 duty=LS_PhaseC Phases=1 Bus1=263515048.3 kV=7.1998 XFKVA=75.000000 PF= 0.98
New Load.258840093_2 duty=LS_PhaseB Phases=1 Bus1=258840093.2 kV=7.1998 XFKVA=50.000000 PF= 0.98
New Load.259545338_1 duty=LS_PhaseA Phases=1 Bus1=259545338.1 kV=7.1998 XFKVA=25.000000 PF= 0.98
New Load.259545338_2 duty=LS_PhaseB Phases=1 Bus1=259545338.2 kV=7.1998 XFKVA=25.000000 PF= 0.98
New Load.259545338_3 duty=LS_PhaseC Phases=1 Bus1=259545338.3 kV=7.1998 XFKVA=25.000000 PF= 0.98
New Load.258851328_3 duty=LS_PhaseC Phases=1 Bus1=258851328.3 kV=7.1998 XFKVA=50.000000 PF= 0.98
New Load.258840185_3 duty=LS_PhaseC Phases=1 Bus1=258840185.3 kV=7.1998 XFKVA=50.000000 PF= 0.98
New Load.258851212_3 duty=LS_PhaseC Phases=1 Bus1=258851212.3 kV=7.1998 XFKVA=25.000000 PF= 0.98
New Load.258840086_2 duty=LS_PhaseB Phases=1 Bus1=258840086.2 kV=7.1998 XFKVA=25.000000 PF= 0.98
New Load.258851207_2 duty=LS_PhaseB Phases=1 Bus1=258851207.2 kV=7.1998 XFKVA=25.000000 PF= 0.98
New Load.258840435_2 duty=LS_PhaseB Phases=1 Bus1=258840435.2 kV=7.1998 XFKVA=15.000000 PF= 0.98
New Load.263515030_1 duty=LS_PhaseA Phases=1 Bus1=263515030.1 kV=7.1998 XFKVA=50.000000 PF= 0.98
New Load.258851029_1 duty=LS_PhaseA Phases=1 Bus1=258851029.1 kV=7.1998 XFKVA=50.000000 PF= 0.98
New Load.258851029_2 duty=LS_PhaseB Phases=1 Bus1=258851029.2 kV=7.1998 XFKVA=50.000000 PF= 0.98
New Load.258851029_3 duty=LS_PhaseC Phases=1 Bus1=258851029.3 kV=7.1998 XFKVA=50.000000 PF= 0.98
New Load.263515156_1 duty=LS_PhaseA Phases=1 Bus1=263515156.1 kV=7.1998 XFKVA=250.000000 PF= 0.98
New Load.263515156_2 duty=LS_PhaseB Phases=1 Bus1=263515156.2 kV=7.1998 XFKVA=250.000000 PF= 0.98
New Load.263515156_3 duty=LS_PhaseC Phases=1 Bus1=263515156.3 kV=7.1998 XFKVA=250.000000 PF= 0.98
New Load.258851155_1 duty=LS_PhaseA Phases=1 Bus1=258851155.1 kV=7.1998 XFKVA=25.000000 PF= 0.98
New Load.460932401_1 duty=LS_PhaseA Phases=1 Bus1=460932401.1 kV=7.1998 XFKVA=50.000000 PF= 0.98
New Load.460932401_2 duty=LS_PhaseB Phases=1 Bus1=460932401.2 kV=7.1998 XFKVA=50.000000 PF= 0.98
New Load.460932401_3 duty=LS_PhaseC Phases=1 Bus1=460932401.3 kV=7.1998 XFKVA=50.000000 PF= 0.98
New Load.263815492_1 duty=LS_PhaseA Phases=1 Bus1=263815492.1 kV=7.1998 XFKVA=50.000000 PF= 0.98
New Load.258851313_1 duty=LS_PhaseA Phases=1 Bus1=258851313.1 kV=7.1998 XFKVA=75.000000 PF= 0.98
New Load.258851313_2 duty=LS_PhaseB Phases=1 Bus1=258851313.2 kV=7.1998 XFKVA=75.000000 PF= 0.98
New Load.258851313_3 duty=LS_PhaseC Phases=1 Bus1=258851313.3 kV=7.1998 XFKVA=75.000000 PF= 0.98
New Load.258851133_3 duty=LS_PhaseC Phases=1 Bus1=258851133.3 kV=7.1998 XFKVA=25.000000 PF= 0.98
New Load.258840393_1 duty=LS_PhaseA Phases=1 Bus1=258840393.1 kV=7.1998 XFKVA=37.500000 PF= 0.98
New Load.258840393_2 duty=LS_PhaseB Phases=1 Bus1=258840393.2 kV=7.1998 XFKVA=37.500000 PF= 0.98
New Load.258840393_3 duty=LS_PhaseC Phases=1 Bus1=258840393.3 kV=7.1998 XFKVA=37.500000 PF= 0.98
New Load.263515093_1 duty=LS_PhaseA Phases=1 Bus1=263515093.1 kV=7.1998 XFKVA=25.000000 PF= 0.98
New Load.263515093_2 duty=LS_PhaseB Phases=1 Bus1=263515093.2 kV=7.1998 XFKVA=25.000000 PF= 0.98
New Load.263515093_3 duty=LS_PhaseC Phases=1 Bus1=263515093.3 kV=7.1998 XFKVA=25.000000 PF= 0.98
New Load.263515012_1 duty=LS_PhaseA Phases=1 Bus1=263515012.1 kV=7.1998 XFKVA=100.000000 PF= 0.98
New Load.263515012_2 duty=LS_PhaseB Phases=1 Bus1=263515012.2 kV=7.1998 XFKVA=100.000000 PF= 0.98
New Load.263515012_3 duty=LS_PhaseC Phases=1 Bus1=263515012.3 kV=7.1998 XFKVA=100.000000 PF= 0.98
New Load.261124309_1 duty=LS_PhaseA Phases=1 Bus1=261124309.1 kV=7.1998 XFKVA=250.000000 PF= 0.98
New Load.261124309_2 duty=LS_PhaseB Phases=1 Bus1=261124309.2 kV=7.1998 XFKVA=250.000000 PF= 0.98
New Load.261124309_3 duty=LS_PhaseC Phases=1 Bus1=261124309.3 kV=7.1998 XFKVA=250.000000 PF= 0.98
New Load.460932413_1 duty=LS_PhaseA Phases=1 Bus1=460932413.1 kV=7.1998 XFKVA=250.000000 PF= 0.98
New Load.460932413_2 duty=LS_PhaseB Phases=1 Bus1=460932413.2 kV=7.1998 XFKVA=250.000000 PF= 0.98
New Load.460932413_3 duty=LS_PhaseC Phases=1 Bus1=460932413.3 kV=7.1998 XFKVA=250.000000 PF= 0.98
New Load.258851108_2 duty=LS_PhaseB Phases=1 Bus1=258851108.2 kV=7.1998 XFKVA=50.000000 PF= 0.98
New Load.263515111_1 duty=LS_PhaseA Phases=1 Bus1=263515111.1 kV=7.1998 XFKVA=75.000000 PF= 0.98
New Load.263514868_1 duty=LS_PhaseA Phases=1 Bus1=263514868.1 kV=7.1998 XFKVA=25.000000 PF= 0.98
New Load.263514868_2 duty=LS_PhaseB Phases=1 Bus1=263514868.2 kV=7.1998 XFKVA=25.000000 PF= 0.98
New Load.263514868_3 duty=LS_PhaseC Phases=1 Bus1=263514868.3 kV=7.1998 XFKVA=25.000000 PF= 0.98
New Load.261123019_1 duty=LS_PhaseA Phases=1 Bus1=261123019.1 kV=7.1998 XFKVA=75.000000 PF= 0.98
New Load.261123019_2 duty=LS_PhaseB Phases=1 Bus1=261123019.2 kV=7.1998 XFKVA=75.000000 PF= 0.98
New Load.261123019_3 duty=LS_PhaseC Phases=1 Bus1=261123019.3 kV=7.1998 XFKVA=75.000000 PF= 0.98
New Load.260784260_3 duty=LS_PhaseC Phases=1 Bus1=260784260.3 kV=7.1998 XFKVA=75.000000 PF= 0.98
New Load.261002761_1 duty=LS_PhaseA Phases=1 Bus1=261002761.1 kV=7.1998 XFKVA=25.000000 PF= 0.98
New Load.462745747_1 duty=LS_PhaseA Phases=1 Bus1=462745747.1 kV=7.1998 XFKVA=250.000000 PF= 0.98
New Load.462745747_2 duty=LS_PhaseB Phases=1 Bus1=462745747.2 kV=7.1998 XFKVA=250.000000 PF= 0.98
New Load.462745747_3 duty=LS_PhaseC Phases=1 Bus1=462745747.3 kV=7.1998 XFKVA=250.000000 PF= 0.98
New Load.261002770_1 duty=LS_PhaseA Phases=1 Bus1=261002770.1 kV=7.1998 XFKVA=50.000000 PF= 0.98
New Load.259005065_2 duty=LS_PhaseB Phases=1 Bus1=259005065.2 kV=7.1998 XFKVA=25.000000 PF= 0.98
New Load.260784245_3 duty=LS_PhaseC Phases=1 Bus1=260784245.3 kV=7.1998 XFKVA=75.000000 PF= 0.98
New Load.263514832_1 duty=LS_PhaseA Phases=1 Bus1=263514832.1 kV=7.1998 XFKVA=250.000000 PF= 0.98
New Load.263514832_2 duty=LS_PhaseB Phases=1 Bus1=263514832.2 kV=7.1998 XFKVA=250.000000 PF= 0.98
New Load.263514832_3 duty=LS_PhaseC Phases=1 Bus1=263514832.3 kV=7.1998 XFKVA=250.000000 PF= 0.98
New Load.261002746_1 duty=LS_PhaseA Phases=1 Bus1=261002746.1 kV=7.1998 XFKVA=25.000000 PF= 0.98
New Load.259005041_2 duty=LS_PhaseB Phases=1 Bus1=259005041.2 kV=7.1998 XFKVA=50.000000 PF= 0.98
New Load.263514814_1 duty=LS_PhaseA Phases=1 Bus1=263514814.1 kV=7.1998 XFKVA=50.000000 PF= 0.98
New Load.263514814_2 duty=LS_PhaseB Phases=1 Bus1=263514814.2 kV=7.1998 XFKVA=50.000000 PF= 0.98
New Load.263514814_3 duty=LS_PhaseC Phases=1 Bus1=263514814.3 kV=7.1998 XFKVA=50.000000 PF= 0.98
New Load.261002721_2 duty=LS_PhaseB Phases=1 Bus1=261002721.2 kV=7.1998 XFKVA=25.000000 PF= 0.98
New Load.260972095_2 duty=LS_PhaseB Phases=1 Bus1=260972095.2 kV=7.1998 XFKVA=50.000000 PF= 0.98
New Load.258850989_2 duty=LS_PhaseB Phases=1 Bus1=258850989.2 kV=7.1998 XFKVA=25.000000 PF= 0.98
